9
CuTPPI g tensor ori - zyx
   N       0.30644        1.43574        1.44329
   N       0.29285        1.44955       -1.42539
   N       0.29754       -1.41840       -1.43892
   N       0.29538       -1.43212        1.42964
  Cu       0.29806        0.00841        0.00000
  He       0.41816        0.04995       -0.01441
  Ne       0.30000        0.34305        0.72325
  Ar       0.30000        0.78762       -0.30752
  Kr       1.21192        0.00000        0.00000